*EXP.DETAILS: 

*GENERAL
@PEOPLE
Muhammad Zeeshan Mehmood and Phillip D. Alderman
@ADDRESS
Department of Plant and Soil Sciences, Oklahoma State University, Stillwater, OK, 74078, USA
@SITE
French Wheat AgMIP Phase - IV
@ PAREA  PRNO  PLEN  PLDR  PLSP  PLAY HAREA  HRNO  HLEN  HARM.........
    -99   -99   -99   -99   -99   -99   -99   -99   -99  -99          
@NOTES
-99

*TREATMENTS                        -------------FACTOR LEVELS------------
@N R O C TNAME.................... CU FL SA IC MP MI MF MR MC MT ME MH SM
 1 1 1 0 Site012012                 1  1  0  1  1  0  1  0  0  0  0  0  1
 2 1 1 0 Site012013                 1  2  0  2  2  0  2  0  0  0  0  0  2
 3 1 1 0 Site022010                 1  3  0  3  3  0  3  0  0  0  0  0  3
 4 1 1 0 Site022011                 1  4  0  4  4  0  4  0  0  0  0  0  4
 5 1 1 0 Site022014                 1  5  0  5  5  0  5  0  0  0  0  0  5
 6 1 1 0 Site022015                 1  6  0  6  6  0  6  0  0  0  0  0  6
 7 1 1 0 Site032012                 1  7  0  7  7  0  7  0  0  0  0  0  7
 8 1 1 0 Site032013                 1  8  0  8  8  0  8  0  0  0  0  0  8
 9 1 1 0 Site042011                 1  9  0  9  9  0  9  0  0  0  0  0  9
10 1 1 0 Site052012                 1 10  0 10 10  0 10  0  0  0  0  0 10
11 1 1 0 Site062013                 1 11  0 11 11  0 11  0  0  0  0  0 11
12 1 1 0 Site072014                 1 12  0 12 12  0 12  0  0  0  0  0 12
13 1 1 0 Site082015                 1 13  0 13 13  0 13  0  0  0  0  0 13
14 1 1 0 Site092012                 1 14  0 14 14  0 14  0  0  0  0  0 14
15 1 1 0 Site092013                 1 15  0 15 15  0 15  0  0  0  0  0 15
16 1 1 0 Site102010                 1 16  0 16 16  0 16  0  0  0  0  0 16
17 1 1 0 Site102011                 1 17  0 17 17  0 17  0  0  0  0  0 17
18 1 1 0 Site102014                 1 18  0 18 18  0 18  0  0  0  0  0 18
19 1 1 0 Site102015                 1 19  0 19 19  0 19  0  0  0  0  0 19
20 1 1 0 Site112014                 1 20  0 20 20  0 20  0  0  0  0  0 20
21 1 1 0 Site112015                 1 21  0 21 21  0 21  0  0  0  0  0 21
22 1 1 0 Site112016                 1 22  0 22 22  0 22  0  0  0  0  0 22

*CULTIVARS
@C CR INGENO CNAME
 1 WH FR0001 Apache

*FIELDS
@L ID_FIELD WSTA....  FLSA  FLOB  FLDT  FLDD  FLDS  FLST SLTX  SLDP  ID_SOIL    FLNAME
 1 ST012012 STATION1   -99   -99   -99   -99   -99   -99 -99    -99  FRST012012 Site012012
 2 ST012013 STATION1   -99   -99   -99   -99   -99   -99 -99    -99  FRST012013 Site012013
 3 ST022010 STATION2   -99   -99   -99   -99   -99   -99 -99    -99  FRST022010 Site022010
 4 ST022011 STATION2   -99   -99   -99   -99   -99   -99 -99    -99  FRST022011 Site022011
 5 ST022014 STATION2   -99   -99   -99   -99   -99   -99 -99    -99  FRST022014 Site022014
 6 ST022015 STATION2   -99   -99   -99   -99   -99   -99 -99    -99  FRST022015 Site022015
 7 ST032012 STATION3   -99   -99   -99   -99   -99   -99 -99    -99  FRST032012 Site032012
 8 ST032013 STATION3   -99   -99   -99   -99   -99   -99 -99    -99  FRST032013 Site032013
 9 ST042011 STATION4   -99   -99   -99   -99   -99   -99 -99    -99  FRST042011 Site042011
10 ST052012 STATION4   -99   -99   -99   -99   -99   -99 -99    -99  FRST052012 Site052012
11 ST062013 STATION4   -99   -99   -99   -99   -99   -99 -99    -99  FRST062013 Site062013
12 ST072014 STATION4   -99   -99   -99   -99   -99   -99 -99    -99  FRST072014 Site072014
13 ST082015 STATION4   -99   -99   -99   -99   -99   -99 -99    -99  FRST082015 Site082015
14 ST092012 STATION5   -99   -99   -99   -99   -99   -99 -99    -99  FRST092012 Site092012
15 ST092013 STATION5   -99   -99   -99   -99   -99   -99 -99    -99  FRST092013 Site092013
16 ST102010 STATION6   -99   -99   -99   -99   -99   -99 -99    -99  FRST102010 Site102010
17 ST102011 STATION6   -99   -99   -99   -99   -99   -99 -99    -99  FRST102011 Site102011
18 ST102014 STATION6   -99   -99   -99   -99   -99   -99 -99    -99  FRST102014 Site102014
19 ST102015 STATION6   -99   -99   -99   -99   -99   -99 -99    -99  FRST102015 Site102015
20 ST112014 STATION7   -99   -99   -99   -99   -99   -99 -99    -99  FRST112014 Site112014
21 ST112015 STATION7   -99   -99   -99   -99   -99   -99 -99    -99  FRST112015 Site112015
22 ST112016 STATION7   -99   -99   -99   -99   -99   -99 -99    -99  FRST112016 Site112016
@L ...........XCRD ...........YCRD .....ELEV .............AREA .SLEN .FLWR .SLAS FLHST FHDUR
 1             -99             -99       -99               -99   -99   -99   -99   -99   -99
 2             -99             -99       -99               -99   -99   -99   -99   -99   -99
 3             -99             -99       -99               -99   -99   -99   -99   -99   -99
 4             -99             -99       -99               -99   -99   -99   -99   -99   -99
 5             -99             -99       -99               -99   -99   -99   -99   -99   -99
 6             -99             -99       -99               -99   -99   -99   -99   -99   -99
 7             -99             -99       -99               -99   -99   -99   -99   -99   -99
 8             -99             -99       -99               -99   -99   -99   -99   -99   -99
 9             -99             -99       -99               -99   -99   -99   -99   -99   -99
10             -99             -99       -99               -99   -99   -99   -99   -99   -99
11             -99             -99       -99               -99   -99   -99   -99   -99   -99
12             -99             -99       -99               -99   -99   -99   -99   -99   -99
13             -99             -99       -99               -99   -99   -99   -99   -99   -99
14             -99             -99       -99               -99   -99   -99   -99   -99   -99
15             -99             -99       -99               -99   -99   -99   -99   -99   -99
16             -99             -99       -99               -99   -99   -99   -99   -99   -99
17             -99             -99       -99               -99   -99   -99   -99   -99   -99
18             -99             -99       -99               -99   -99   -99   -99   -99   -99
19             -99             -99       -99               -99   -99   -99   -99   -99   -99
20             -99             -99       -99               -99   -99   -99   -99   -99   -99
21             -99             -99       -99               -99   -99   -99   -99   -99   -99
22             -99             -99       -99               -99   -99   -99   -99   -99   -99

*INITIAL CONDITIONS
@C   PCR ICDAT  ICRT  ICND  ICRN  ICRE  ICWD ICRES ICREN ICREP ICRIP ICRID ICNAME
 1    WH 11213   -99   -99   -99   -99   -99   -99   -99   -99   -99   -99 Site012012
@C  ICBL  SH2O  SNH4  SNO3
 1    25 0.000   -99   -99
 1    50 0.096   -99   -99
 1    70 0.103   -99   -99
 1   150 0.107   -99   -99
@C   PCR ICDAT  ICRT  ICND  ICRN  ICRE  ICWD ICRES ICREN ICREP ICRIP ICRID ICNAME
 2    WH 12214   -99   -99   -99   -99   -99   -99   -99   -99   -99   -99 Site012013
@C  ICBL  SH2O  SNH4  SNO3
 2    25 0.000   -99   -99
 2    50 0.096   -99   -99
 2    70 0.103   -99   -99
 2   150 0.107   -99   -99
@C   PCR ICDAT  ICRT  ICND  ICRN  ICRE  ICWD ICRES ICREN ICREP ICRIP ICRID ICNAME
 3    WH 09213   -99   -99   -99   -99   -99   -99   -99   -99   -99   -99 Site022010
@C  ICBL  SH2O  SNH4  SNO3
 3    25 0.000   -99   -99
 3    50 0.141   -99   -99
 3   150 0.136   -99   -99
@C   PCR ICDAT  ICRT  ICND  ICRN  ICRE  ICWD ICRES ICREN ICREP ICRIP ICRID ICNAME
 4    WH 10213   -99   -99   -99   -99   -99   -99   -99   -99   -99   -99 Site022011
@C  ICBL  SH2O  SNH4  SNO3
 4    25 0.000   -99   -99
 4    50 0.141   -99   -99
 4   150 0.136   -99   -99
@C   PCR ICDAT  ICRT  ICND  ICRN  ICRE  ICWD ICRES ICREN ICREP ICRIP ICRID ICNAME
 5    WH 13213   -99   -99   -99   -99   -99   -99   -99   -99   -99   -99 Site022014
@C  ICBL  SH2O  SNH4  SNO3
 5    25 0.000   -99   -99
 5    50 0.141   -99   -99
 5   150 0.136   -99   -99
@C   PCR ICDAT  ICRT  ICND  ICRN  ICRE  ICWD ICRES ICREN ICREP ICRIP ICRID ICNAME
 6    WH 14213   -99   -99   -99   -99   -99   -99   -99   -99   -99   -99 Site022015
@C  ICBL  SH2O  SNH4  SNO3
 6    25 0.000   -99   -99
 6    50 0.141   -99   -99
 6   150 0.136   -99   -99
@C   PCR ICDAT  ICRT  ICND  ICRN  ICRE  ICWD ICRES ICREN ICREP ICRIP ICRID ICNAME
 7    WH 11213   -99   -99   -99   -99   -99   -99   -99   -99   -99   -99 Site032012
@C  ICBL  SH2O  SNH4  SNO3
 7    25 0.000   -99   -99
 7    50 0.089   -99   -99
 7    60 0.149   -99   -99
 7    90 0.196   -99   -99
@C   PCR ICDAT  ICRT  ICND  ICRN  ICRE  ICWD ICRES ICREN ICREP ICRIP ICRID ICNAME
 8    WH 12214   -99   -99   -99   -99   -99   -99   -99   -99   -99   -99 Site032013
@C  ICBL  SH2O  SNH4  SNO3
 8    25 0.000   -99   -99
 8    50 0.089   -99   -99
 8    60 0.149   -99   -99
 8    90 0.196   -99   -99
@C   PCR ICDAT  ICRT  ICND  ICRN  ICRE  ICWD ICRES ICREN ICREP ICRIP ICRID ICNAME
 9    WH 10213   -99   -99   -99   -99   -99   -99   -99   -99   -99   -99 Site042011
@C  ICBL  SH2O  SNH4  SNO3
 9    25 0.000   -99   -99
 9    90 0.084   -99   -99
 9   150 0.114   -99   -99
@C   PCR ICDAT  ICRT  ICND  ICRN  ICRE  ICWD ICRES ICREN ICREP ICRIP ICRID ICNAME
10    WH 11213   -99   -99   -99   -99   -99   -99   -99   -99   -99   -99 Site052012
@C  ICBL  SH2O  SNH4  SNO3
10    25 0.000   -99   -99
10    90 0.084   -99   -99
10   150 0.114   -99   -99
@C   PCR ICDAT  ICRT  ICND  ICRN  ICRE  ICWD ICRES ICREN ICREP ICRIP ICRID ICNAME
11    WH 12214   -99   -99   -99   -99   -99   -99   -99   -99   -99   -99 Site062013
@C  ICBL  SH2O  SNH4  SNO3
11    25 0.000   -99   -99
11    90 0.084   -99   -99
11   150 0.114   -99   -99
@C   PCR ICDAT  ICRT  ICND  ICRN  ICRE  ICWD ICRES ICREN ICREP ICRIP ICRID ICNAME
12    WH 13213   -99   -99   -99   -99   -99   -99   -99   -99   -99   -99 Site072014
@C  ICBL  SH2O  SNH4  SNO3
12    25 0.000   -99   -99
12    90 0.084   -99   -99
12   150 0.114   -99   -99
@C   PCR ICDAT  ICRT  ICND  ICRN  ICRE  ICWD ICRES ICREN ICREP ICRIP ICRID ICNAME
13    WH 14213   -99   -99   -99   -99   -99   -99   -99   -99   -99   -99 Site082015
@C  ICBL  SH2O  SNH4  SNO3
13    25 0.000   -99   -99
13    90 0.084   -99   -99
13   150 0.114   -99   -99
@C   PCR ICDAT  ICRT  ICND  ICRN  ICRE  ICWD ICRES ICREN ICREP ICRIP ICRID ICNAME
14    WH 11213   -99   -99   -99   -99   -99   -99   -99   -99   -99   -99 Site092012
@C  ICBL  SH2O  SNH4  SNO3
14    25 0.000   -99   -99
14    90 0.156   -99   -99
@C   PCR ICDAT  ICRT  ICND  ICRN  ICRE  ICWD ICRES ICREN ICREP ICRIP ICRID ICNAME
15    WH 12214   -99   -99   -99   -99   -99   -99   -99   -99   -99   -99 Site092013
@C  ICBL  SH2O  SNH4  SNO3
15    25 0.000   -99   -99
15    90 0.156   -99   -99
@C   PCR ICDAT  ICRT  ICND  ICRN  ICRE  ICWD ICRES ICREN ICREP ICRIP ICRID ICNAME
16    WH 09213   -99   -99   -99   -99   -99   -99   -99   -99   -99   -99 Site102010
@C  ICBL  SH2O  SNH4  SNO3
16    30 0.000   -99   -99
16    50 0.089   -99   -99
16   150 0.089   -99   -99
@C   PCR ICDAT  ICRT  ICND  ICRN  ICRE  ICWD ICRES ICREN ICREP ICRIP ICRID ICNAME
17    WH 10213   -99   -99   -99   -99   -99   -99   -99   -99   -99   -99 Site102011
@C  ICBL  SH2O  SNH4  SNO3
17    30 0.000   -99   -99
17    50 0.089   -99   -99
17   150 0.089   -99   -99
@C   PCR ICDAT  ICRT  ICND  ICRN  ICRE  ICWD ICRES ICREN ICREP ICRIP ICRID ICNAME
18    WH 13213   -99   -99   -99   -99   -99   -99   -99   -99   -99   -99 Site102014
@C  ICBL  SH2O  SNH4  SNO3
18    30 0.000   -99   -99
18    50 0.089   -99   -99
18   150 0.089   -99   -99
@C   PCR ICDAT  ICRT  ICND  ICRN  ICRE  ICWD ICRES ICREN ICREP ICRIP ICRID ICNAME
19    WH 14213   -99   -99   -99   -99   -99   -99   -99   -99   -99   -99 Site102015
@C  ICBL  SH2O  SNH4  SNO3
19    30 0.000   -99   -99
19    50 0.089   -99   -99
19   150 0.089   -99   -99
@C   PCR ICDAT  ICRT  ICND  ICRN  ICRE  ICWD ICRES ICREN ICREP ICRIP ICRID ICNAME
20    WH 13213   -99   -99   -99   -99   -99   -99   -99   -99   -99   -99 Site112014
@C  ICBL  SH2O  SNH4  SNO3
20    30 0.000   -99   -99
20    70 0.156   -99   -99
@C   PCR ICDAT  ICRT  ICND  ICRN  ICRE  ICWD ICRES ICREN ICREP ICRIP ICRID ICNAME
21    WH 14213   -99   -99   -99   -99   -99   -99   -99   -99   -99   -99 Site112015
@C  ICBL  SH2O  SNH4  SNO3
21    30 0.000   -99   -99
21    70 0.156   -99   -99
@C   PCR ICDAT  ICRT  ICND  ICRN  ICRE  ICWD ICRES ICREN ICREP ICRIP ICRID ICNAME
22    WH 15213   -99   -99   -99   -99   -99   -99   -99   -99   -99   -99 Site112016
@C  ICBL  SH2O  SNH4  SNO3
22    30 0.000   -99   -99
22    70 0.156   -99   -99

*PLANTING DETAILS
@P PDATE EDATE  PPOP  PPOE  PLME  PLDS  PLRS  PLRD  PLDP  PLWT  PAGE  PENV  PLPH  SPRL                        PLNAME
 1 11314   -99 250.0   -99     S     R  17.0   -99   3.0   -99   -99   -99   -99   -99                        Site012012
 2 12297   -99 250.0   -99     S     R  17.0   -99   3.0   -99   -99   -99   -99   -99                        Site012013
 3 09281   -99 350.0   -99     S     R  17.0   -99   3.0   -99   -99   -99   -99   -99                        Site022010
 4 10280   -99 300.0   -99     S     R  17.0   -99   3.0   -99   -99   -99   -99   -99                        Site022011
 5 13280   -99 320.0   -99     S     R  17.0   -99   3.0   -99   -99   -99   -99   -99                        Site022014
 6 14288   -99 320.0   -99     S     R  17.0   -99   3.0   -99   -99   -99   -99   -99                        Site022015
 7 11284   -99 320.0   -99     S     R  17.0   -99   3.0   -99   -99   -99   -99   -99                        Site032012
 8 12292   -99 320.0   -99     S     R  17.0   -99   3.0   -99   -99   -99   -99   -99                        Site032013
 9 10286   -99 200.0   -99     S     R  17.0   -99   3.0   -99   -99   -99   -99   -99                        Site042011
10 11285   -99 200.0   -99     S     R  17.0   -99   3.0   -99   -99   -99   -99   -99                        Site052012
11 12298   -99 200.0   -99     S     R  17.0   -99   3.0   -99   -99   -99   -99   -99                        Site062013
12 13288   -99 200.0   -99     S     R  17.0   -99   3.0   -99   -99   -99   -99   -99                        Site072014
13 14287   -99 200.0   -99     S     R  17.0   -99   3.0   -99   -99   -99   -99   -99                        Site082015
14 11294   -99 250.0   -99     S     R  17.0   -99   3.0   -99   -99   -99   -99   -99                        Site092012
15 12304   -99 250.0   -99     S     R  17.0   -99   3.0   -99   -99   -99   -99   -99                        Site092013
16 09303   -99 230.0   -99     S     R  17.0   -99   3.0   -99   -99   -99   -99   -99                        Site102010
17 10301   -99 230.0   -99     S     R  17.0   -99   3.0   -99   -99   -99   -99   -99                        Site102011
18 13294   -99 240.0   -99     S     R  17.0   -99   3.0   -99   -99   -99   -99   -99                        Site102014
19 14300   -99 260.0   -99     S     R  17.0   -99   3.0   -99   -99   -99   -99   -99                        Site102015
20 13294   -99 260.0   -99     S     R  17.0   -99   3.0   -99   -99   -99   -99   -99                        Site112014
21 14296   -99 280.0   -99     S     R  17.0   -99   3.0   -99   -99   -99   -99   -99                        Site112015
22 15294   -99 280.0   -99     S     R  17.0   -99   3.0   -99   -99   -99   -99   -99                        Site112016

*FERTILIZERS (INORGANIC)
@F FDATE  FMCD  FACD  FDEP  FAMN  FAMP  FAMK  FAMC  FAMO  FOCD FERNAME
 1 11314 FE005 AP002    15    76   -99   -99   -99   -99   -99 Site012012
 1 12075 FE005 AP001     1   217   -99   -99   -99   -99   -99 Site012012
 1 12135 FE005 AP001     1    87   -99   -99   -99   -99   -99 Site012012
 2 12297 FE005 AP002    15    76   -99   -99   -99   -99   -99 Site012013
 2 13065 FE005 AP001     1    87   -99   -99   -99   -99   -99 Site012013
 2 13109 FE005 AP001     1   304   -99   -99   -99   -99   -99 Site012013
 2 13147 FE005 AP001     1    87   -99   -99   -99   -99   -99 Site012013
 3 09281 FE005 AP002    15    76   -99   -99   -99   -99   -99 Site022010
 3 10046 FE005 AP001     1    78   -99   -99   -99   -99   -99 Site022010
 3 10077 FE005 AP001     1   135   -99   -99   -99   -99   -99 Site022010
 3 10095 FE005 AP001     1   135   -99   -99   -99   -99   -99 Site022010
 3 10119 FE005 AP001     1    73   -99   -99   -99   -99   -99 Site022010
 4 10280 FE005 AP002    15    76   -99   -99   -99   -99   -99 Site022011
 4 11054 FE005 AP001     1    76   -99   -99   -99   -99   -99 Site022011
 4 11070 FE005 AP001     1   109   -99   -99   -99   -99   -99 Site022011
 4 11088 FE005 AP001     1   217   -99   -99   -99   -99   -99 Site022011
 4 11119 FE005 AP001     1    54   -99   -99   -99   -99   -99 Site022011
 5 13280 FE005 AP002    15    76   -99   -99   -99   -99   -99 Site022014
 5 14050 FE005 AP001     1    78   -99   -99   -99   -99   -99 Site022014
 5 14073 FE005 AP001     1   130   -99   -99   -99   -99   -99 Site022014
 5 14087 FE005 AP001     1   130   -99   -99   -99   -99   -99 Site022014
 5 14107 FE005 AP001     1    87   -99   -99   -99   -99   -99 Site022014
 6 14288 FE005 AP002    15    76   -99   -99   -99   -99   -99 Site022015
 6 15056 FE005 AP001     1   111   -99   -99   -99   -99   -99 Site022015
 6 15083 FE005 AP001     1   217   -99   -99   -99   -99   -99 Site022015
 6 15124 FE005 AP001     1   120   -99   -99   -99   -99   -99 Site022015
 7 11284 FE005 AP002    15    76   -99   -99   -99   -99   -99 Site032012
 7 12056 FE005 AP001     1   109   -99   -99   -99   -99   -99 Site032012
 7 12081 FE005 AP001     1   213   -99   -99   -99   -99   -99 Site032012
 7 12118 FE005 AP001     1    74   -99   -99   -99   -99   -99 Site032012
 8 12292 FE005 AP002    15    76   -99   -99   -99   -99   -99 Site032013
 8 13050 FE005 AP001     1    93   -99   -99   -99   -99   -99 Site032013
 8 13081 FE005 AP001     1   220   -99   -99   -99   -99   -99 Site032013
 8 13130 FE005 AP001     1   111   -99   -99   -99   -99   -99 Site032013
 9 10286 FE005 AP002    15    76   -99   -99   -99   -99   -99 Site042011
 9 11056 FE005 AP001     1   135   -99   -99   -99   -99   -99 Site042011
 9 11080 FE005 AP001     1   174   -99   -99   -99   -99   -99 Site042011
 9 11119 FE005 AP001     1   109   -99   -99   -99   -99   -99 Site042011
10 11285 FE005 AP002    15    76   -99   -99   -99   -99   -99 Site052012
10 12065 FE005 AP001     1   109   -99   -99   -99   -99   -99 Site052012
10 12076 FE005 AP001     1   196   -99   -99   -99   -99   -99 Site052012
10 12116 FE005 AP001     1    87   -99   -99   -99   -99   -99 Site052012
11 12298 FE005 AP002    15    76   -99   -99   -99   -99   -99 Site062013
11 13049 FE005 AP001     1    39   -99   -99   -99   -99   -99 Site062013
11 13061 FE005 AP001     1   152   -99   -99   -99   -99   -99 Site062013
11 13082 FE005 AP001     1   161   -99   -99   -99   -99   -99 Site062013
11 13123 FE005 AP001     1    91   -99   -99   -99   -99   -99 Site062013
12 13288 FE005 AP002    15    76   -99   -99   -99   -99   -99 Site072014
12 14055 FE005 AP001     1    70   -99   -99   -99   -99   -99 Site072014
12 14065 FE005 AP001     1   196   -99   -99   -99   -99   -99 Site072014
12 14097 FE005 AP001     1   170   -99   -99   -99   -99   -99 Site072014
13 14287 FE005 AP002    15    76   -99   -99   -99   -99   -99 Site082015
13 15064 FE005 AP001     1   174   -99   -99   -99   -99   -99 Site082015
13 15085 FE005 AP001     1   170   -99   -99   -99   -99   -99 Site082015
13 15114 FE005 AP001     1    85   -99   -99   -99   -99   -99 Site082015
14 11294 FE005 AP002    15    76   -99   -99   -99   -99   -99 Site092012
14 12032 FE005 AP001     1    80   -99   -99   -99   -99   -99 Site092012
14 12068 FE005 AP001     1    80   -99   -99   -99   -99   -99 Site092012
14 12118 FE005 AP001     1    65   -99   -99   -99   -99   -99 Site092012
14 12131 FE005 AP001     1   174   -99   -99   -99   -99   -99 Site092012
15 12304 FE005 AP002    15    76   -99   -99   -99   -99   -99 Site092013
15 13074 FE005 AP001     1   174   -99   -99   -99   -99   -99 Site092013
15 13095 FE005 AP001     1    98   -99   -99   -99   -99   -99 Site092013
15 13134 FE005 AP001     1    65   -99   -99   -99   -99   -99 Site092013
16 09303 FE005 AP002    15    76   -99   -99   -99   -99   -99 Site102010
16 10063 FE005 AP001     1    87   -99   -99   -99   -99   -99 Site102010
16 10090 FE005 AP001     1   217   -99   -99   -99   -99   -99 Site102010
16 10138 FE005 AP001     1    65   -99   -99   -99   -99   -99 Site102010
17 10301 FE005 AP002    15    76   -99   -99   -99   -99   -99 Site102011
17 11062 FE005 AP001     1    85   -99   -99   -99   -99   -99 Site102011
17 11084 FE005 AP001     1   174   -99   -99   -99   -99   -99 Site102011
17 11118 FE005 AP001     1    65   -99   -99   -99   -99   -99 Site102011
18 13294 FE005 AP002    15    76   -99   -99   -99   -99   -99 Site102014
18 14051 FE005 AP001     1    87   -99   -99   -99   -99   -99 Site102014
18 14066 FE005 AP001     1    87   -99   -99   -99   -99   -99 Site102014
18 14080 FE005 AP001     1   174   -99   -99   -99   -99   -99 Site102014
18 14129 FE005 AP001     1    65   -99   -99   -99   -99   -99 Site102014
19 14300 FE005 AP002    15    76   -99   -99   -99   -99   -99 Site102015
19 15055 FE005 AP001     1    65   -99   -99   -99   -99   -99 Site102015
19 15072 FE005 AP001     1   127   -99   -99   -99   -99   -99 Site102015
19 15086 FE005 AP001     1   119   -99   -99   -99   -99   -99 Site102015
19 15120 FE005 AP001     1   143   -99   -99   -99   -99   -99 Site102015
20 13294 FE005 AP002    15    76   -99   -99   -99   -99   -99 Site112014
20 14048 FE005 AP001     1    87   -99   -99   -99   -99   -99 Site112014
20 14079 FE005 AP001     1   217   -99   -99   -99   -99   -99 Site112014
20 14126 FE005 AP001     1   109   -99   -99   -99   -99   -99 Site112014
21 14296 FE005 AP002    15    76   -99   -99   -99   -99   -99 Site112015
21 15050 FE005 AP001     1    87   -99   -99   -99   -99   -99 Site112015
21 15091 FE005 AP001     1   196   -99   -99   -99   -99   -99 Site112015
21 15126 FE005 AP001     1   130   -99   -99   -99   -99   -99 Site112015
22 15294 FE005 AP002    15    76   -99   -99   -99   -99   -99 Site112016
22 16056 FE005 AP001     1   104   -99   -99   -99   -99   -99 Site112016
22 16082 FE005 AP001     1   196   -99   -99   -99   -99   -99 Site112016
22 16130 FE005 AP001     1    65   -99   -99   -99   -99   -99 Site112016

*SIMULATION CONTROLS
@N GENERAL     NYERS NREPS START SDATE RSEED SNAME.................... SMODEL  
 1 GE              1     1     S 11213  2150 Site012012                CSCRP   
@N OPTIONS     WATER NITRO SYMBI PHOSP POTAS DISES  CHEM  TILL   CO2
 1 OP              Y     Y     N     N     N     N     N     N     M
@N METHODS     WTHER INCON LIGHT EVAPO INFIL PHOTO HYDRO NSWIT MESOM MESEV MESOL
 1 ME              M     M     E     R     S     C     R     1     G     R     3
@N MANAGEMENT  PLANT IRRIG FERTI RESID HARVS
 1 MA              R     N     R     N     M
@N OUTPUTS     FNAME OVVEW SUMRY FROPT GROUT CAOUT WAOUT NIOUT MIOUT DIOUT VBOSE CHOUT OPOUT FMOPT
 1 OU              N     Y     Y     1     Y     N     Y     N     N     N     N     N     N     A
@  AUTOMATIC MANAGEMENT
@N PLANTING    PFRST PLAST PH2OL PH2OU PH2OD PSTMX PSTMN
 1 PL            -99   -99   -99   -99   -99   -99   -99
@N IRRIGATION  IMDEP ITHRL ITHRU IROFF IMETH IRAMT IREFF
 1 IR            -99   -99   -99   -99   -99   -99   -99
@N NITROGEN    NMDEP NMTHR NAMNT NCODE NAOFF
 1 NI            -99   -99   -99   -99   -99
@N RESIDUES    RIPCN RTIME RIDEP
 1 RE            -99   -99   -99
@N HARVEST     HFRST HLAST HPCNP HPCNR
 1 HA            -99   -99   -99   -99
@N SIMDATES    ENDAT    SDUR   FODAT  FSTRYR  FENDYR FWFILE           FONAME
 1 SI            -99     -99     -99     -99     -99 -99              -99
@N GENERAL     NYERS NREPS START SDATE RSEED SNAME.................... SMODEL  
 2 GE              1     1     S 12214  2150 Site012013                CSCRP   
@N OPTIONS     WATER NITRO SYMBI PHOSP POTAS DISES  CHEM  TILL   CO2
 2 OP              Y     Y     N     N     N     N     N     N     M
@N METHODS     WTHER INCON LIGHT EVAPO INFIL PHOTO HYDRO NSWIT MESOM MESEV MESOL
 2 ME              M     M     E     R     S     C     R     1     G     R     3
@N MANAGEMENT  PLANT IRRIG FERTI RESID HARVS
 2 MA              R     N     R     N     M
@N OUTPUTS     FNAME OVVEW SUMRY FROPT GROUT CAOUT WAOUT NIOUT MIOUT DIOUT VBOSE CHOUT OPOUT FMOPT
 2 OU              N     Y     Y     1     Y     N     Y     N     N     N     N     N     N     A
@  AUTOMATIC MANAGEMENT
@N PLANTING    PFRST PLAST PH2OL PH2OU PH2OD PSTMX PSTMN
 2 PL            -99   -99   -99   -99   -99   -99   -99
@N IRRIGATION  IMDEP ITHRL ITHRU IROFF IMETH IRAMT IREFF
 2 IR            -99   -99   -99   -99   -99   -99   -99
@N NITROGEN    NMDEP NMTHR NAMNT NCODE NAOFF
 2 NI            -99   -99   -99   -99   -99
@N RESIDUES    RIPCN RTIME RIDEP
 2 RE            -99   -99   -99
@N HARVEST     HFRST HLAST HPCNP HPCNR
 2 HA            -99   -99   -99   -99
@N SIMDATES    ENDAT    SDUR   FODAT  FSTRYR  FENDYR FWFILE           FONAME
 2 SI            -99     -99     -99     -99     -99 -99              -99
@N GENERAL     NYERS NREPS START SDATE RSEED SNAME.................... SMODEL  
 3 GE              1     1     S 09213  2150 Site022010                CSCRP   
@N OPTIONS     WATER NITRO SYMBI PHOSP POTAS DISES  CHEM  TILL   CO2
 3 OP              Y     Y     N     N     N     N     N     N     M
@N METHODS     WTHER INCON LIGHT EVAPO INFIL PHOTO HYDRO NSWIT MESOM MESEV MESOL
 3 ME              M     M     E     R     S     C     R     1     G     R     3
@N MANAGEMENT  PLANT IRRIG FERTI RESID HARVS
 3 MA              R     N     R     N     M
@N OUTPUTS     FNAME OVVEW SUMRY FROPT GROUT CAOUT WAOUT NIOUT MIOUT DIOUT VBOSE CHOUT OPOUT FMOPT
 3 OU              N     Y     Y     1     Y     N     Y     N     N     N     N     N     N     A
@  AUTOMATIC MANAGEMENT
@N PLANTING    PFRST PLAST PH2OL PH2OU PH2OD PSTMX PSTMN
 3 PL            -99   -99   -99   -99   -99   -99   -99
@N IRRIGATION  IMDEP ITHRL ITHRU IROFF IMETH IRAMT IREFF
 3 IR            -99   -99   -99   -99   -99   -99   -99
@N NITROGEN    NMDEP NMTHR NAMNT NCODE NAOFF
 3 NI            -99   -99   -99   -99   -99
@N RESIDUES    RIPCN RTIME RIDEP
 3 RE            -99   -99   -99
@N HARVEST     HFRST HLAST HPCNP HPCNR
 3 HA            -99   -99   -99   -99
@N SIMDATES    ENDAT    SDUR   FODAT  FSTRYR  FENDYR FWFILE           FONAME
 3 SI            -99     -99     -99     -99     -99 -99              -99
@N GENERAL     NYERS NREPS START SDATE RSEED SNAME.................... SMODEL  
 4 GE              1     1     S 10213  2150 Site022011                CSCRP   
@N OPTIONS     WATER NITRO SYMBI PHOSP POTAS DISES  CHEM  TILL   CO2
 4 OP              Y     Y     N     N     N     N     N     N     M
@N METHODS     WTHER INCON LIGHT EVAPO INFIL PHOTO HYDRO NSWIT MESOM MESEV MESOL
 4 ME              M     M     E     R     S     C     R     1     G     R     3
@N MANAGEMENT  PLANT IRRIG FERTI RESID HARVS
 4 MA              R     N     R     N     M
@N OUTPUTS     FNAME OVVEW SUMRY FROPT GROUT CAOUT WAOUT NIOUT MIOUT DIOUT VBOSE CHOUT OPOUT FMOPT
 4 OU              N     Y     Y     1     Y     N     Y     N     N     N     N     N     N     A
@  AUTOMATIC MANAGEMENT
@N PLANTING    PFRST PLAST PH2OL PH2OU PH2OD PSTMX PSTMN
 4 PL            -99   -99   -99   -99   -99   -99   -99
@N IRRIGATION  IMDEP ITHRL ITHRU IROFF IMETH IRAMT IREFF
 4 IR            -99   -99   -99   -99   -99   -99   -99
@N NITROGEN    NMDEP NMTHR NAMNT NCODE NAOFF
 4 NI            -99   -99   -99   -99   -99
@N RESIDUES    RIPCN RTIME RIDEP
 4 RE            -99   -99   -99
@N HARVEST     HFRST HLAST HPCNP HPCNR
 4 HA            -99   -99   -99   -99
@N SIMDATES    ENDAT    SDUR   FODAT  FSTRYR  FENDYR FWFILE           FONAME
 4 SI            -99     -99     -99     -99     -99 -99              -99
@N GENERAL     NYERS NREPS START SDATE RSEED SNAME.................... SMODEL  
 5 GE              1     1     S 13213  2150 Site022014                CSCRP   
@N OPTIONS     WATER NITRO SYMBI PHOSP POTAS DISES  CHEM  TILL   CO2
 5 OP              Y     Y     N     N     N     N     N     N     M
@N METHODS     WTHER INCON LIGHT EVAPO INFIL PHOTO HYDRO NSWIT MESOM MESEV MESOL
 5 ME              M     M     E     R     S     C     R     1     G     R     3
@N MANAGEMENT  PLANT IRRIG FERTI RESID HARVS
 5 MA              R     N     R     N     M
@N OUTPUTS     FNAME OVVEW SUMRY FROPT GROUT CAOUT WAOUT NIOUT MIOUT DIOUT VBOSE CHOUT OPOUT FMOPT
 5 OU              N     Y     Y     1     Y     N     Y     N     N     N     N     N     N     A
@  AUTOMATIC MANAGEMENT
@N PLANTING    PFRST PLAST PH2OL PH2OU PH2OD PSTMX PSTMN
 5 PL            -99   -99   -99   -99   -99   -99   -99
@N IRRIGATION  IMDEP ITHRL ITHRU IROFF IMETH IRAMT IREFF
 5 IR            -99   -99   -99   -99   -99   -99   -99
@N NITROGEN    NMDEP NMTHR NAMNT NCODE NAOFF
 5 NI            -99   -99   -99   -99   -99
@N RESIDUES    RIPCN RTIME RIDEP
 5 RE            -99   -99   -99
@N HARVEST     HFRST HLAST HPCNP HPCNR
 5 HA            -99   -99   -99   -99
@N SIMDATES    ENDAT    SDUR   FODAT  FSTRYR  FENDYR FWFILE           FONAME
 5 SI            -99     -99     -99     -99     -99 -99              -99
@N GENERAL     NYERS NREPS START SDATE RSEED SNAME.................... SMODEL  
 6 GE              1     1     S 14213  2150 Site022015                CSCRP   
@N OPTIONS     WATER NITRO SYMBI PHOSP POTAS DISES  CHEM  TILL   CO2
 6 OP              Y     Y     N     N     N     N     N     N     M
@N METHODS     WTHER INCON LIGHT EVAPO INFIL PHOTO HYDRO NSWIT MESOM MESEV MESOL
 6 ME              M     M     E     R     S     C     R     1     G     R     3
@N MANAGEMENT  PLANT IRRIG FERTI RESID HARVS
 6 MA              R     N     R     N     M
@N OUTPUTS     FNAME OVVEW SUMRY FROPT GROUT CAOUT WAOUT NIOUT MIOUT DIOUT VBOSE CHOUT OPOUT FMOPT